Version 4
SHEET 1 880 680
WIRE 160 16 112 16
WIRE 288 16 240 16
WIRE 112 128 112 16
WIRE 160 128 112 128
WIRE 288 128 288 16
WIRE 288 128 224 128
WIRE -32 240 -80 240
WIRE 112 240 112 128
WIRE 112 240 48 240
WIRE 160 240 112 240
WIRE 288 256 288 128
WIRE 288 256 224 256
WIRE 400 256 288 256
WIRE 160 272 112 272
WIRE 112 288 112 272
FLAG 192 224 Vcc
FLAG 192 288 Vdd
FLAG 112 288 0
FLAG -352 -80 0
FLAG -352 128 0
FLAG -240 128 0
FLAG -240 48 Vdd
FLAG -352 48 Vcc
FLAG -352 -160 Vin
FLAG -80 240 Vin
SYMBOL res 64 224 R90
WINDOW 0 0 56 VBottom 2
WINDOW 3 32 56 VTop 2
SYMATTR InstName R1
SYMATTR Value 10k
SYMBOL res 256 0 R90
WINDOW 0 0 56 VBottom 2
WINDOW 3 32 56 VTop 2
SYMATTR InstName R2
SYMATTR Value 10k
SYMBOL cap 224 112 R90
WINDOW 0 0 32 VBottom 2
WINDOW 3 32 32 VTop 2
SYMATTR InstName C1
SYMATTR Value 100n
SYMBOL Opamps\\opamp2 192 192 R0
SYMATTR InstName U1
SYMATTR Value TL084
SYMBOL voltage -352 32 R0
WINDOW 123 0 0 Left 0
WINDOW 39 0 0 Left 0
SYMATTR InstName V1
SYMATTR Value 15
SYMBOL voltage -240 32 R0
WINDOW 123 0 0 Left 0
WINDOW 39 0 0 Left 0
SYMATTR InstName V2
SYMATTR Value -15
SYMBOL voltage -352 -176 R0
WINDOW 123 24 124 Left 2
WINDOW 39 0 0 Left 0
WINDOW 3 24 152 Left 2
SYMATTR Value2 AC 1
SYMATTR Value SINE(0.05 1 2k)
SYMATTR InstName V3
TEXT -384 216 Left 2 !.ac dec 50 10 20k
TEXT -384 240 Left 2 !;tran 0 12m 10m
TEXT -384 192 Left 2 !.include TL084.lib
