Version 4
SHEET 1 1620 680
WIRE 448 -80 -16 -80
WIRE 784 -64 624 -64
WIRE 1024 -64 848 -64
WIRE -160 -48 -208 -48
WIRE -48 -48 -96 -48
WIRE 160 48 160 -32
WIRE 192 48 160 48
WIRE -336 64 -384 64
WIRE -208 64 -208 -48
WIRE -208 64 -256 64
WIRE -144 64 -208 64
WIRE 336 64 256 64
WIRE 416 64 336 64
WIRE 448 64 448 -80
WIRE 464 64 448 64
WIRE 624 64 624 -64
WIRE 624 64 544 64
WIRE 656 64 624 64
WIRE 784 64 736 64
WIRE 848 64 784 64
WIRE -48 80 -48 -48
WIRE -48 80 -80 80
WIRE -16 80 -16 -80
WIRE -16 80 -48 80
WIRE 16 80 -16 80
WIRE 144 80 96 80
WIRE 192 80 144 80
WIRE 784 80 784 64
WIRE 1024 80 1024 -64
WIRE 1024 80 912 80
WIRE 1120 80 1024 80
WIRE 1328 80 1184 80
WIRE 1456 80 1408 80
WIRE 1600 80 1536 80
WIRE -144 96 -176 96
WIRE 848 96 832 96
WIRE -176 128 -176 96
WIRE 1600 144 1600 80
WIRE 784 160 784 144
WIRE 832 176 832 96
WIRE 1024 176 1024 80
WIRE 1024 176 832 176
WIRE 144 208 144 80
WIRE 176 208 144 208
WIRE 336 208 336 64
WIRE 336 208 256 208
WIRE -384 288 -384 64
WIRE 416 288 416 64
WIRE 416 288 -384 288
FLAG -176 128 0
FLAG 32 528 0
FLAG 144 528 0
FLAG 32 448 Vcc
FLAG -112 48 Vcc
FLAG 224 32 Vcc
FLAG 144 448 Vdd
FLAG -112 112 Vdd
FLAG 224 96 Vdd
FLAG 160 -32 0
FLAG 784 160 0
FLAG 880 112 Vcc
FLAG 880 48 Vdd
FLAG 1136 48 Vcc
FLAG 1152 112 Vdd
FLAG 1600 144 0
SYMBOL res 272 192 R90
WINDOW 0 0 56 VBottom 2
WINDOW 3 32 56 VTop 2
SYMATTR InstName R3
SYMATTR Value 2k
SYMBOL cap -96 -64 R90
WINDOW 0 0 32 VBottom 2
WINDOW 3 32 32 VTop 2
SYMATTR InstName C1
SYMATTR Value 200n
SYMBOL voltage 32 432 R0
WINDOW 123 0 0 Left 0
WINDOW 39 0 0 Left 0
SYMATTR InstName V1
SYMATTR Value 15
SYMBOL voltage 144 432 R0
WINDOW 123 0 0 Left 0
WINDOW 39 0 0 Left 0
SYMATTR InstName V2
SYMATTR Value -15
SYMBOL res -240 48 R90
WINDOW 0 0 56 VBottom 2
WINDOW 3 32 56 VTop 2
SYMATTR InstName R1
SYMATTR Value 1k
SYMBOL res 112 64 R90
WINDOW 0 0 56 VBottom 2
WINDOW 3 32 56 VTop 2
SYMATTR InstName R2
SYMATTR Value 1k
SYMBOL Opamps\\opamp2 -112 16 R0
SYMATTR InstName U1
SYMATTR Value TL084
SYMBOL Opamps\\opamp2 224 0 R0
SYMATTR InstName U2
SYMATTR Value TL084
SYMBOL res 560 48 R90
WINDOW 0 0 56 VBottom 2
WINDOW 3 32 56 VTop 2
SYMATTR InstName R4
SYMATTR Value 2k
SYMBOL res 752 48 R90
WINDOW 0 0 56 VBottom 2
WINDOW 3 32 56 VTop 2
SYMATTR InstName R5
SYMATTR Value 1k
SYMBOL cap 768 80 R0
SYMATTR InstName C2
SYMATTR Value 50n
SYMBOL cap 848 -80 R90
WINDOW 0 0 32 VBottom 2
WINDOW 3 32 32 VTop 2
SYMATTR InstName C3
SYMATTR Value 100n
SYMBOL Opamps\\opamp2 880 144 M180
SYMATTR InstName U3
SYMATTR Value TL084
SYMBOL Opamps\\LT1010 1152 16 R0
SYMATTR InstName U4
SYMBOL res 1424 64 R90
WINDOW 0 0 56 VBottom 2
WINDOW 3 32 56 VTop 2
SYMATTR InstName Rprot
SYMATTR Value 50
SYMBOL res 1552 64 R90
WINDOW 0 0 56 VBottom 2
WINDOW 3 32 56 VTop 2
SYMATTR InstName Rhp
SYMATTR Value 32
TEXT -264 472 Left 2 !.tran 0 4m 2m
TEXT -264 504 Left 2 !.include TL084.lib
