Version 4
SHEET 1 880 680
WIRE 112 128 16 128
WIRE 272 144 176 144
WIRE 112 160 16 160
WIRE 304 192 304 160
WIRE 416 192 416 160
WIRE 16 208 16 160
WIRE 304 304 304 272
WIRE 416 304 416 272
FLAG 16 128 0
FLAG 304 304 0
FLAG 416 304 0
FLAG 16 288 0
FLAG 304 160 Vcc
FLAG 144 112 Vcc
FLAG 144 176 Vdd
FLAG 416 160 Vdd
SYMBOL Opamps\\OP07 144 80 R0
SYMATTR InstName U1
SYMBOL voltage 16 192 R0
WINDOW 3 24 96 Invisible 2
WINDOW 123 0 0 Left 0
WINDOW 39 0 0 Left 0
SYMATTR Value PULSE(-5 5 0 1n 1n 0.5m 1m)
SYMATTR InstName V1
SYMBOL voltage 304 176 R0
WINDOW 123 0 0 Left 0
WINDOW 39 0 0 Left 0
SYMATTR InstName V2
SYMATTR Value 15
SYMBOL voltage 416 176 R0
WINDOW 123 0 0 Left 0
WINDOW 39 0 0 Left 0
SYMATTR InstName V3
SYMATTR Value -15
TEXT -16 328 Left 2 !.tran 2m
