Version 4
SHEET 1 1028 680
WIRE 112 16 64 16
WIRE 224 16 176 16
WIRE 432 112 432 32
WIRE 464 112 432 112
WIRE -64 128 -112 128
WIRE 64 128 64 16
WIRE 64 128 16 128
WIRE 128 128 64 128
WIRE 608 128 528 128
WIRE 688 128 608 128
WIRE 736 128 688 128
WIRE 224 144 224 16
WIRE 224 144 192 144
WIRE 288 144 224 144
WIRE 416 144 368 144
WIRE 464 144 416 144
WIRE 128 160 96 160
WIRE 96 192 96 160
WIRE 416 272 416 144
WIRE 448 272 416 272
WIRE 608 272 608 128
WIRE 608 272 528 272
WIRE -112 352 -112 128
WIRE 688 352 688 128
WIRE 688 352 -112 352
FLAG 96 192 0
FLAG 560 32 0
FLAG 672 32 0
FLAG 560 -48 Vcc
FLAG 160 112 Vcc
FLAG 496 96 Vcc
FLAG 672 -48 Vdd
FLAG 160 176 Vdd
FLAG 496 160 Vdd
FLAG 432 32 0
SYMBOL res 544 256 R90
WINDOW 0 0 56 VBottom 2
WINDOW 3 32 56 VTop 2
SYMATTR InstName R2
SYMATTR Value 2k
SYMBOL cap 176 0 R90
WINDOW 0 0 32 VBottom 2
WINDOW 3 32 32 VTop 2
SYMATTR InstName C1
SYMATTR Value 100n
SYMBOL voltage 560 -64 R0
WINDOW 123 0 0 Left 0
WINDOW 39 0 0 Left 0
SYMATTR InstName V1
SYMATTR Value 15
SYMBOL voltage 672 -64 R0
WINDOW 123 0 0 Left 0
WINDOW 39 0 0 Left 0
SYMATTR InstName V2
SYMATTR Value -15
SYMBOL res 32 112 R90
WINDOW 0 0 56 VBottom 2
WINDOW 3 32 56 VTop 2
SYMATTR InstName R4
SYMATTR Value 1k
SYMBOL res 384 128 R90
WINDOW 0 0 56 VBottom 2
WINDOW 3 32 56 VTop 2
SYMATTR InstName R3
SYMATTR Value 1k
SYMBOL Opamps\\opamp2 160 80 R0
SYMATTR InstName U1
SYMATTR Value TL084
SYMBOL Opamps\\opamp2 496 64 R0
SYMATTR InstName U2
SYMATTR Value TL084
TEXT -112 360 Left 2 !.tran 0 1m 0
TEXT -104 400 Left 2 !.include TL084.lib
