Version 4
SHEET 1 880 680
WIRE -16 0 -160 0
WIRE 176 0 -16 0
WIRE 176 64 176 0
WIRE 144 80 80 80
WIRE -160 96 -160 0
WIRE 256 96 208 96
WIRE -16 112 -16 80
WIRE 144 112 -16 112
WIRE -16 160 -16 112
WIRE 80 192 80 80
WIRE 176 208 176 128
WIRE -160 288 -160 176
WIRE 80 288 80 272
WIRE -16 320 -16 240
FLAG -16 320 0
FLAG 80 288 0
FLAG -160 288 0
FLAG 176 208 0
SYMBOL voltage -160 80 R0
WINDOW 123 0 0 Left 0
WINDOW 39 0 0 Left 0
SYMATTR InstName V1
SYMATTR Value 15
SYMBOL res -32 -16 R0
SYMATTR InstName R1
SYMATTR Value 6k
SYMBOL res -32 144 R0
SYMATTR InstName R2
SYMATTR Value 4k
SYMBOL voltage 80 176 R0
WINDOW 123 0 0 Left 0
WINDOW 39 0 0 Left 0
SYMATTR InstName V2
SYMATTR Value PULSE(0 15 0 0.5m 0.5m 1p 1m)
SYMBOL OpAmps\\opamp2 176 32 R0
SYMATTR InstName U1
SYMATTR Value TL084
TEXT -192 344 Left 2 !.tran 6m
TEXT 432 8 Left 2 !.include TL084.lib
