Version 4
SHEET 1 880 680
WIRE 448 16 -16 16
WIRE 272 80 208 80
WIRE 384 80 352 80
WIRE 448 96 448 16
WIRE -16 128 -16 16
WIRE 208 128 208 80
WIRE 384 144 384 80
WIRE 448 224 448 192
WIRE -16 304 -16 208
WIRE 208 304 208 208
WIRE 208 304 -16 304
WIRE 448 304 208 304
FLAG 208 304 0
SYMBOL voltage -16 112 R0
WINDOW 123 0 0 Left 0
WINDOW 39 0 0 Left 0
SYMATTR InstName V1
SYMATTR Value 1.5
SYMBOL voltage 208 112 R0
WINDOW 3 24 96 Invisible 2
WINDOW 123 0 0 Left 0
WINDOW 39 0 0 Left 0
SYMATTR InstName V2
SYMATTR Value PULSE(0 2 0 1p 1p 0.5m 1m)
SYMBOL res 368 64 R90
WINDOW 0 0 56 VBottom 2
WINDOW 3 32 56 VTop 2
SYMATTR InstName R1
SYMATTR Value 10k
SYMBOL res 464 320 R180
WINDOW 0 36 76 Left 2
WINDOW 3 36 40 Left 2
SYMATTR InstName R2
SYMATTR Value 10
SYMBOL pnp 384 192 M180
SYMATTR InstName Q1
TEXT -50 328 Left 2 !.tran 5m
