Version 4
SHEET 1 880 728
WIRE 240 128 144 128
WIRE 416 128 240 128
WIRE 144 208 144 128
WIRE 416 224 416 128
WIRE -432 256 -432 208
WIRE 144 288 -16 288
WIRE -272 304 -368 304
WIRE -80 304 -192 304
WIRE 144 304 144 288
WIRE 32 320 -16 320
WIRE 416 416 416 288
WIRE -432 432 -432 352
WIRE -288 432 -432 432
WIRE -160 448 -224 448
WIRE -112 448 -160 448
WIRE 32 448 32 320
WIRE 32 448 -32 448
WIRE -432 464 -432 432
WIRE -288 464 -320 464
WIRE -432 560 -432 544
WIRE -432 560 -608 560
WIRE -320 576 -320 464
WIRE -288 576 -320 576
WIRE -160 576 -160 448
WIRE -160 576 -208 576
WIRE -608 592 -608 560
WIRE -320 608 -320 576
FLAG 416 416 0
FLAG 144 384 0
FLAG 32 512 0
FLAG -320 688 0
FLAG -320 128 0
FLAG -176 128 0
FLAG -464 128 0
FLAG -320 48 Vcc
FLAG -48 336 Vcc
FLAG -256 480 Vcc
FLAG -464 48 Valim
FLAG 240 48 Valim
FLAG -176 48 Vdd
FLAG -48 272 Vdd
FLAG -256 416 Vdd
FLAG -608 672 0
FLAG -432 208 Valim
SYMBOL res 224 32 R0
SYMATTR InstName R1
SYMATTR Value 560
SYMBOL zener 432 288 R180
WINDOW 0 24 64 Left 2
WINDOW 3 24 0 Left 2
SYMATTR InstName D1
SYMATTR Value MYD
SYMBOL res 128 192 R0
SYMATTR InstName R2
SYMATTR Value 37.4k
SYMBOL res 128 288 R0
SYMATTR InstName R3
SYMATTR Value 62.6k
SYMBOL cap 16 448 R0
SYMATTR InstName C1
SYMATTR Value 1µ
SYMBOL res -16 432 R90
WINDOW 0 0 56 VBottom 2
WINDOW 3 32 56 VTop 2
SYMATTR InstName R4
SYMATTR Value 1.2k
SYMBOL OpAmps\\OP07 -48 368 R180
SYMATTR InstName U1
SYMBOL OpAmps\\OP07 -256 512 M180
SYMATTR InstName U2
SYMBOL res -336 592 R0
SYMATTR InstName R5
SYMATTR Value 5.6k
SYMBOL res -192 560 R90
WINDOW 0 0 56 VBottom 2
WINDOW 3 32 56 VTop 2
SYMATTR InstName R6
SYMATTR Value 100k
SYMBOL voltage -320 32 R0
WINDOW 123 0 0 Left 0
WINDOW 39 0 0 Left 0
SYMATTR InstName V2
SYMATTR Value 5
SYMBOL voltage -176 32 R0
WINDOW 123 0 0 Left 0
WINDOW 39 0 0 Left 0
SYMATTR InstName V3
SYMATTR Value -5
SYMBOL voltage -464 32 R0
WINDOW 123 0 0 Left 0
WINDOW 39 0 0 Left 0
SYMATTR InstName V1
SYMATTR Value 4.5
SYMBOL voltage -608 576 R0
WINDOW 123 0 0 Left 0
WINDOW 39 0 0 Left 0
SYMATTR InstName V4
SYMATTR Value SINE(0 250m 20)
SYMBOL res -176 288 R90
WINDOW 0 0 56 VBottom 2
WINDOW 3 32 56 VTop 2
SYMATTR InstName R7
SYMATTR Value 50k
SYMBOL ind -448 448 R0
SYMATTR InstName L1
SYMATTR Value 1m
SYMBOL pnp -368 352 R180
SYMATTR InstName Q1
TEXT 488 304 Left 2 !.model MYD D(Bv=3 type=zener)
TEXT -496 712 Left 2 !.tran 0.25
