Version 4
SHEET 1 880 680
WIRE 0 -192 -128 -192
WIRE 128 -192 0 -192
WIRE 128 -160 128 -192
WIRE -128 -96 -128 -192
WIRE 80 -80 -16 -80
WIRE -176 -16 -272 -16
WIRE -128 32 -128 0
WIRE 128 32 128 -64
WIRE 128 32 -128 32
WIRE 208 32 128 32
WIRE 416 32 368 32
WIRE 128 128 128 32
WIRE -272 208 -272 -16
WIRE -272 208 -400 208
WIRE 80 208 -272 208
WIRE 128 320 128 224
WIRE -16 400 -16 -80
WIRE -16 400 -400 400
WIRE 80 400 -16 400
WIRE 128 512 128 416
FLAG 128 512 0
FLAG 128 368 0
FLAG 128 176 0
FLAG -128 -48 Vdd
FLAG 128 -112 Vdd
FLAG 0 -192 Vdd
FLAG -400 208 A
IOPIN -400 208 In
FLAG -400 400 B
IOPIN -400 400 In
FLAG 416 32 out
IOPIN 416 32 Out
FLAG 400 416 0
FLAG 400 336 Vdd
SYMBOL pmos4 80 -160 R0
SYMATTR InstName M1
SYMATTR Value P_50n
SYMATTR Value2 l=50n w=1000n
SYMBOL pmos4 -176 -96 R0
SYMATTR InstName M2
SYMATTR Value P_50n
SYMATTR Value2 l=50n w=1000n
SYMBOL nmos4 80 128 R0
SYMATTR InstName M3
SYMATTR Value N_50n
SYMATTR Value2 l=50n w=1000n
SYMBOL nmos4 80 320 R0
SYMATTR InstName M4
SYMATTR Value N_50n
SYMATTR Value2 l=50n w=1000n
SYMBOL voltage 400 320 R0
WINDOW 123 0 0 Left 0
WINDOW 39 0 0 Left 0
SYMATTR InstName V1
SYMATTR Value 1
SYMBOL Inverter 240 -32 R0
SYMATTR InstName X1
TEXT 336 512 Left 2 !.include cmosedu_models.txt
