Version 4
SHEET 1 880 680
WIRE 48 176 -32 176
WIRE 224 176 176 176
WIRE 112 256 112 240
FLAG -32 256 0
FLAG 80 112 0
FLAG 144 112 0
SYMBOL FullAdder 112 176 R0
SYMATTR InstName X1
SYMBOL voltage -32 160 R0
WINDOW 123 0 0 Left 0
WINDOW 39 0 0 Left 0
SYMATTR InstName V1
SYMATTR Value 1
TEXT -66 280 Left 2 !.tran 1
TEXT 216 96 Left 2 !.include cmosedu_models.txt
