Version 4
SHEET 1 880 680
WIRE 240 48 -32 48
WIRE -32 128 -32 48
WIRE 16 128 -32 128
WIRE 176 144 80 144
WIRE 240 144 240 48
WIRE 272 144 240 144
WIRE 288 144 272 144
WIRE 16 160 -32 160
FLAG 384 304 0
FLAG 512 304 0
FLAG 384 224 Vcc
FLAG 48 112 Vcc
FLAG 512 224 Vdd
FLAG 48 176 Vdd
FLAG 640 224 Vin
FLAG -32 160 Vin
FLAG 640 304 0
FLAG 368 144 0
FLAG 272 144 Vout
SYMBOL diode 176 160 R270
WINDOW 0 32 32 VTop 2
WINDOW 3 0 32 VBottom 2
SYMATTR InstName D1
SYMBOL Opamps\\OP07 48 80 R0
SYMATTR InstName U1
SYMBOL voltage 640 320 R180
WINDOW 0 24 96 Left 2
WINDOW 3 24 16 Invisible 2
WINDOW 123 0 0 Left 0
WINDOW 39 0 0 Left 0
SYMATTR InstName V1
SYMATTR Value PULSE(-2 2 0 0.5m 0.5m 1p 1m)
SYMBOL voltage 384 208 R0
WINDOW 123 0 0 Left 0
WINDOW 39 0 0 Left 0
SYMATTR InstName V2
SYMATTR Value 15
SYMBOL voltage 512 208 R0
WINDOW 123 0 0 Left 0
WINDOW 39 0 0 Left 0
SYMATTR InstName V3
SYMATTR Value -15
SYMBOL res 384 128 R90
WINDOW 0 0 56 VBottom 2
WINDOW 3 32 56 VTop 2
SYMATTR InstName R1
SYMATTR Value 1k
TEXT -88 328 Left 2 !.tran 6m
