Version 4
SHEET 1 1236 696
WIRE -16 0 -16 -64
WIRE 16 0 16 -48
WIRE 240 0 240 -48
WIRE 272 0 272 -48
WIRE 512 0 512 -48
WIRE 544 0 544 -48
WIRE 208 48 48 48
WIRE 480 48 304 48
WIRE 640 48 576 48
WIRE -48 96 -48 48
WIRE 0 272 0 96
WIRE 256 272 256 96
WIRE 528 272 528 96
WIRE 832 304 800 304
WIRE 1040 304 992 304
WIRE 16 384 16 336
WIRE 272 384 272 336
WIRE 544 384 544 336
WIRE -80 480 -144 480
WIRE 448 480 416 480
FLAG -48 96 0
FLAG 768 496 0
FLAG 768 416 Vdd
FLAG -16 -64 Vdd
FLAG 16 -48 Bit_1
IOPIN 16 -48 In
FLAG 272 -48 Bit_2
IOPIN 272 -48 In
FLAG 544 -48 Bit_3
IOPIN 544 -48 In
FLAG 240 -48 0
FLAG 512 -48 0
FLAG 16 576 Bit_1
IOPIN 16 576 Out
FLAG 272 576 Bit_2
IOPIN 272 576 Out
FLAG 544 576 Bit_3
IOPIN 544 576 Out
FLAG 800 304 Reset
IOPIN 800 304 In
FLAG 560 272 NOT_RESET
IOPIN 560 272 In
FLAG 288 272 NOT_RESET
IOPIN 288 272 In
FLAG 32 272 NOT_RESET
IOPIN 32 272 In
FLAG 640 48 Cn+1
IOPIN 640 48 Out
FLAG -144 480 CLK
IOPIN -144 480 In
FLAG 176 480 CLK
IOPIN 176 480 In
FLAG 416 480 CLK
IOPIN 416 480 In
FLAG 1040 304 NOT_RESET
IOPIN 1040 304 Out
SYMBOL FullAdder 0 48 R0
SYMATTR InstName X1
SYMBOL FullAdder 256 48 R0
SYMATTR InstName X2
SYMBOL FullAdder 528 48 R0
SYMATTR InstName X3
SYMBOL AND 16 288 R90
SYMATTR InstName X4
SYMBOL AND 272 288 R90
SYMATTR InstName X5
SYMBOL AND 544 288 R90
SYMATTR InstName X6
SYMBOL D_FF 16 480 R90
SYMATTR InstName X7
SYMBOL D_FF 272 480 R90
SYMATTR InstName X8
SYMBOL D_FF 544 480 R90
SYMATTR InstName X9
SYMBOL voltage 768 400 R0
WINDOW 123 0 0 Left 0
WINDOW 39 0 0 Left 0
SYMATTR InstName V1
SYMATTR Value 1
SYMBOL Inverter 864 240 R0
SYMATTR InstName X10
TEXT 760 560 Left 2 !.include cmosedu_models.txt
