Version 4
SHEET 1 888 680
WIRE 384 48 -112 48
WIRE 352 80 -80 80
WIRE 304 112 -32 112
WIRE -32 160 -32 112
WIRE 48 160 -32 160
WIRE 224 160 144 160
WIRE 304 160 304 112
WIRE 304 160 224 160
WIRE -80 176 -80 80
WIRE 48 176 -80 176
WIRE 320 176 144 176
WIRE 352 176 352 80
WIRE 352 176 320 176
WIRE -112 192 -112 48
WIRE 48 192 -112 192
WIRE 368 192 144 192
WIRE 384 192 384 48
WIRE 384 192 368 192
WIRE 48 224 0 224
WIRE 240 224 144 224
WIRE 0 256 0 224
WIRE 96 272 96 240
WIRE 480 400 480 384
WIRE 480 496 480 480
FLAG 16 480 0
FLAG 480 496 0
FLAG 0 256 Reset
FLAG 480 384 Reset
FLAG 16 400 CLK
FLAG 96 272 CLK
FLAG 224 160 Bit_1
FLAG 320 176 Bit_2
FLAG 368 192 Bit_3
SYMBOL 3bitFullAdder 96 208 R0
SYMATTR InstName X1
SYMBOL voltage 16 384 R0
WINDOW 123 0 0 Left 0
WINDOW 39 0 0 Left 0
SYMATTR InstName V4
SYMATTR Value PULSE(0 1 0.25n 1p 1p 0.25n 0.5n)
SYMBOL voltage 480 384 R0
WINDOW 123 0 0 Left 0
WINDOW 39 0 0 Left 0
SYMATTR InstName V5
SYMATTR Value PULSE(0 1 7n 1p 1p 1n 5n)
TEXT -112 504 Left 2 !.tran 10n
